
Circuit: resistor bridge

Doing analysis at TEMP = 27.000000 and TNOM = 27.000000


No. of Data Rows : 1
	Node                                  Voltage
	----                                  -------
	----	-------
	V(23)                            4.545455e+00
	V(30)                            8.181818e+00
	V(33)                            8.181818e+00
	V(22)                            4.545455e+00
	V(3)                             8.181818e+00
	V(31)                            8.181818e+00
	V(2)                             4.545455e+00
	V(21)                            4.545455e+00
	V(1)                             1.000000e+01

	Source	Current
	------	-------

	vin#branch                       -4.54545e+00
	v1#branch                        2.727273e+00
	v2#branch                        1.818182e+00
	v3#branch                        4.545455e+00
	v4#branch                        0.000000e+00
	v5#branch                        1.818182e+00

 Capacitor models (Fixed capacitor)
      model                     C

        cap                     0
         cj                     0
       cjsw                     0
       defw                 1e-05
       defl                     0
     narrow                     0
      short                     0
        del                     0
        tc1                     0
        tc2                     0
         di                     0
      thick                     0
     bv_max                 1e+99

 Resistor models (Simple linear resistor)
      model                     R

        rsh                     0
     narrow                     0
      short                     0
        tc1                     0
        tc2                     0
        tce                     0
       defw                 1e-05
          l                 1e-05
         kf                     0
         af                     0
          r                     0
     bv_max                 1e+99
         lf                     1
         wf                     1
         ef                     1

 Capacitor: Fixed capacitor
     device                    c4
      model                     C
capacitance                 3e-11
      dtemp                     0
     bv_max                 1e+99
          i                     0
          p                     0

 Resistor: Simple linear resistor
     device                    r5                    r4                    r3
      model                     R                     R                     R
 resistance                     2                     2                     1
         ac                     2                     2                     1
      dtemp                     0                     0                     0
     bv_max                 1e+99                 1e+99                 1e+99
      noisy                     1                     1                     1
          i               1.81818                     0               4.54545
          p               6.61157                     0               20.6612

 Resistor: Simple linear resistor
     device                    r2                    r1
      model                     R                     R
 resistance                     1                     2
         ac                     1                     2
      dtemp                     0                     0
     bv_max                 1e+99                 1e+99
      noisy                     1                     1
          i               1.81818               2.72727
          p               3.30579                14.876

 Vsource: Independent voltage source
     device                    v5                    v4                    v3
         dc                     0                     0                     0
      acmag                     0                     0                     0
      pulse         -         -         -
        sin         -         -         -
        exp         -         -         -
        pwl         -         -         -
       sffm         -         -         -
         am         -         -         -
    trnoise         -         -         -
   trrandom         -         -         -
          i               1.81818                     0               4.54545
          p                     0                     0          -4.03717e-15

 Vsource: Independent voltage source
     device                    v2                    v1                   vin
         dc                     0                     0                    10
      acmag                     0                     0                     0
      pulse         -         -         -
        sin         -         -         -
        exp         -         -         -
        pwl         -         -         -
       sffm         -         -         -
         am         -         -         -
    trnoise         -         -         -
   trrandom         -         -         -
          i               1.81818               2.72727              -4.54545
          p                     0                     0              -45.4545


Total analysis time (seconds) = 0

Total elapsed time (seconds) = 0.004 

Total DRAM available = 2973.348 MB.
DRAM currently available = 2351.777 MB.
Maximum ngspice program size =   15.910 MB.
Current ngspice program size =    9.551 MB.

Shared ngspice pages =    8.145 MB.
Text (code) pages =    5.105 MB.
Stack = 0 bytes.
Library pages =    1.996 MB.

