
Compatibility modes selected: ps


Circuit: sensitivity analysis of d=a converter

Doing analysis at TEMP = 27.000000 and TNOM = 27.000000


No. of Data Rows : 1
                     sensitivity analysis of d=a converter
                     Sensitivity Analysis  Fri Apr 16 09:26:38  2021
--------------------------------------------------------------------------------
Index   r1              r2              r3              r4              
--------------------------------------------------------------------------------
0	-0.000000e+00	-0.000000e+00	-0.000000e+00	-0.000000e+00	

                     sensitivity analysis of d=a converter
                     Sensitivity Analysis  Fri Apr 16 09:26:38  2021
--------------------------------------------------------------------------------
Index   vmsb            vlsb            
--------------------------------------------------------------------------------
0	5.000000e-01	2.500000e-01	


Total analysis time (seconds) = 0.001

Total elapsed time (seconds) = 0.005 

Total DRAM available = 1982.750 MB.
DRAM currently available =  704.445 MB.
Maximum ngspice program size =   27.531 MB.
Current ngspice program size =   11.426 MB.

Shared ngspice pages =    9.816 MB.
Text (code) pages =    5.207 MB.
Stack = 0 bytes.
Library pages =    2.094 MB.

