
Circuit: * resistor dividor circuit

Doing analysis at TEMP = 27.000000 and TNOM = 27.000000


No. of Data Rows : 1
	Node                                  Voltage
	----                                  -------
	----	-------
	V(2)                             2.000000e+00
	V(1)                             3.000000e+00

	Source	Current
	------	-------

	vin#branch                       -1.00000e+00

 Resistor models (Simple linear resistor)
      model                     R

        rsh                     0
     narrow                     0
      short                     0
        tc1                     0
        tc2                     0
        tce                     0
       defw                 1e-05
          l                 1e-05
         kf                     0
         af                     0
          r                     0
     bv_max                 1e+99
         lf                     1
         wf                     1
         ef                     1

 Resistor: Simple linear resistor
     device                    r2                    r1
      model                     R                     R
 resistance                     2                     1
         ac                     2                     1
      dtemp                     0                     0
     bv_max                 1e+99                 1e+99
      noisy                     1                     1
          i                     1                     1
          p                     2                     1

 Vsource: Independent voltage source
     device                   vin
         dc                     3
      acmag                     0
      pulse         -
        sin         -
        exp         -
        pwl         -
       sffm         -
         am         -
    trnoise         -
   trrandom         -
          i                    -1
          p                    -3


Total analysis time (seconds) = 0

Total elapsed time (seconds) = 0.005 

Total DRAM available = 2973.348 MB.
DRAM currently available = 2359.934 MB.
Maximum ngspice program size =   15.773 MB.
Current ngspice program size =    8.805 MB.

Shared ngspice pages =    7.617 MB.
Text (code) pages =    5.105 MB.
Stack = 0 bytes.
Library pages =    1.859 MB.

